   5
   -40.46072225
H    0.52405100   -0.92893340   -0.16449230    0.04026000   -0.02979600    0.00187700
H   -0.75608510    0.09429450    0.62230030    0.04169300   -0.01205300   -0.07750500
H    0.06355260    0.73483450   -0.67571110   -0.01151500   -0.02214500    0.01110500
H   -1.14601250   -0.54180340   -1.11155510   -0.03177400   -0.01583100   -0.04670300
C   -0.37080090   -0.13842560   -0.26234460   -0.03866500    0.07982500    0.11122300
